3
Lattice="18.0 0.0 0.0 0.0 18.0 0.0 0.0 0.0 18.0" Properties=species:S:1:pos:R:3:forces:R:3 energy=-3.69561304 stress="-0.001141075806665522 -0.0002048972477429375 8.639692915434159e-05 -0.0002048972477429375 -0.0002234157616288692 -0.0003849291906981246 8.639692915434159e-05 -0.0003849291906981246 -0.0008182823060702098" free_energy=-3.71757228 pbc="T T T"
Cu       9.01678806       9.54738594      10.11429000       0.12642694       1.41749299       2.85089182
Cu       7.97595606       8.56074294       8.55090000      -3.36429467      -1.27748503      -1.14123916
Cu      10.00725606       8.89187094       8.33481000       3.23683472      -0.14060023      -1.70935023
3
Lattice="18.0 0.0 0.0 0.0 18.0 0.0 0.0 0.0 18.0" Properties=species:S:1:pos:R:3:forces:R:3 energy=-3.69561304 stress="-0.001141075806665522 -0.0002048972477429375 8.639692915434159e-05 -0.0002048972477429375 -0.0002234157616288692 -0.0003849291906981246 8.639692915434159e-05 -0.0003849291906981246 -0.0008182823060702098" free_energy=-3.71757228 pbc="T T T"
Cu       9.01678806       9.54738594      10.11429000       0.12642694       1.41749299       2.85089182
Cu       7.97595606       8.56074294       8.55090000      -3.36429467      -1.27748503      -1.14123916
Cu      10.00725606       8.89187094       8.33481000       3.23683472      -0.14060023      -1.70935023
